tests/powsybl/grids/pglib_opf_case300_ieee_corrected.m
%% MATPOWER Case Format : Version 2
function mpc = pglib_opf_case300_ieee
mpc.version = '2';

%%-----  Power Flow Data  -----%%
%% system MVA base
mpc.baseMVA = 100.0;
%% bus data
%    bus_i    type    Pd    Qd    Gs    Bs    area    Vm    Va    baseKV    zone    Vmax    Vmin
mpc.bus = [
	1	1	90.0	49.0	0.0	0.0	1	1.0	0.0	115.0	1	1.06	0.94				
	2	1	56.00000000000001	15.0	0.0	0.0	1	1.0	0.0	115.0	1	1.06	0.94				
	3	1	20.0	0.0	0.0	0.0	1	1.0	0.0	230.0	1	1.06	0.94				
	4	1	0.0	0.0	0.0	0.0	1	1.0	0.0	345.0	1	1.06	0.94				
	5	1	353.0	130.0	0.0	0.0	1	1.0	0.0	115.0	1	1.06	0.94				
	6	1	120.0	41.0	0.0	0.0	1	1.0	0.0	115.0	1	1.06	0.94				
	7	1	0.0	0.0	0.0	0.0	1	1.0	0.0	230.0	1	1.06	0.94				
	8	2	63.0	14.000000000000002	0.0	0.0	1	1.0	0.0	115.0	1	1.06	0.94				
	9	1	96.0	43.0	0.0	0.0	1	1.0	0.0	115.0	1	1.06	0.94				
	10	2	153.0	33.0	0.0	0.0	1	1.0	0.0	230.0	1	1.06	0.94				
	11	1	83.0	21.0	0.0	0.0	1	1.0	0.0	115.0	1	1.06	0.94				
	12	1	0.0	0.0	0.0	0.0	1	1.0	0.0	230.0	1	1.06	0.94				
	13	1	57.99999999999999	10.0	0.0	0.0	1	1.0	0.0	115.0	1	1.06	0.94				
	14	1	160.0	60.0	0.0	0.0	1	1.0	0.0	115.0	1	1.06	0.94				
	15	1	126.70000000000002	23.0	0.0	0.0	1	1.0	0.0	115.0	1	1.06	0.94				
	16	1	0.0	0.0	0.0	0.0	1	1.0	0.0	345.0	1	1.06	0.94				
	17	1	561.0	220.00000000000003	0.0	0.0	1	1.0	0.0	115.0	1	1.06	0.94				
	19	1	0.0	0.0	0.0	0.0	1	1.0	0.0	230.0	1	1.06	0.94				
	20	2	605.0	120.0	0.0	0.0	1	1.0	0.0	115.0	1	1.06	0.94				
	21	1	77.0	1.0	0.0	0.0	1	1.0	0.0	230.0	1	1.06	0.94				
	22	1	81.0	23.0	0.0	0.0	1	1.0	0.0	115.0	1	1.06	0.94				
	23	1	21.0	7.000000000000001	0.0	0.0	1	1.0	0.0	115.0	1	1.06	0.94				
	24	1	0.0	0.0	0.0	0.0	1	1.0	0.0	230.0	1	1.06	0.94				
	25	1	45.0	12.0	0.0	0.0	1	1.0	0.0	115.0	1	1.06	0.94				
	26	1	28.000000000000004	9.0	0.0	0.0	1	1.0	0.0	115.0	1	1.06	0.94				
	27	1	69.0	13.0	0.0	0.0	1	1.0	0.0	115.0	1	1.06	0.94				
	33	1	55.00000000000001	6.0	0.0	0.0	1	1.0	0.0	115.0	1	1.06	0.94				
	34	1	0.0	0.0	0.0	0.0	1	1.0	0.0	345.0	1	1.06	0.94				
	35	1	0.0	0.0	0.0	0.0	1	1.0	0.0	115.0	1	1.06	0.94				
	36	1	0.0	0.0	0.0	0.0	1	1.0	0.0	230.0	1	1.06	0.94				
	37	1	85.0	32.0	0.0	0.0	1	1.0	0.0	115.0	1	1.06	0.94				
	38	1	155.0	18.0	0.0	0.0	1	1.0	0.0	115.0	1	1.06	0.94				
	39	1	0.0	0.0	0.0	0.0	1	1.0	0.0	345.0	1	1.06	0.94				
	40	1	46.0	-21.0	0.0	0.0	1	1.0	0.0	115.0	1	1.06	0.94				
	41	1	86.0	0.0	0.0	0.0	1	1.0	0.0	115.0	1	1.06	0.94				
	42	1	0.0	0.0	0.0	0.0	1	1.0	0.0	345.0	1	1.06	0.94				
	43	1	39.0	9.0	0.0	0.0	1	1.0	0.0	115.0	1	1.06	0.94				
	44	1	195.0	28.999999999999996	0.0	0.0	1	1.0	0.0	115.0	1	1.06	0.94				
	45	1	0.0	0.0	0.0	0.0	1	1.0	0.0	230.0	1	1.06	0.94				
	46	1	0.0	0.0	0.0	0.0	1	1.0	0.0	345.0	1	1.06	0.94				
	47	1	57.99999999999999	11.8	0.0	0.0	1	1.0	0.0	115.0	1	1.06	0.94				
	48	1	41.0	19.0	0.0	0.0	1	1.0	0.0	115.0	1	1.06	0.94				
	49	1	92.0	26.0	0.0	0.0	1	1.0	0.0	115.0	1	1.06	0.94				
	51	1	-5.0	5.0	0.0	0.0	1	1.0	0.0	115.0	1	1.06	0.94				
	52	1	61.0	28.000000000000004	0.0	0.0	1	1.0	0.0	115.0	1	1.06	0.94				
	53	1	69.0	3.0	0.0	0.0	1	1.0	0.0	115.0	1	1.06	0.94				
	54	1	10.0	1.0	0.0	0.0	1	1.0	0.0	115.0	1	1.06	0.94				
	55	1	22.0	10.0	0.0	0.0	1	1.0	0.0	115.0	1	1.06	0.94				
	57	1	98.0	20.0	0.0	0.0	1	1.0	0.0	115.0	1	1.06	0.94				
	58	1	14.000000000000002	1.0	0.0	0.0	1	1.0	0.0	115.0	1	1.06	0.94				
	59	1	218.00000000000003	106.0	0.0	0.0	1	1.0	0.0	115.0	1	1.06	0.94				
	60	1	0.0	0.0	0.0	0.0	1	1.0	0.0	230.0	1	1.06	0.94				
	61	1	227.0	110.00000000000001	0.0	0.0	1	1.0	0.0	115.0	1	1.06	0.94				
	62	1	0.0	0.0	0.0	0.0	1	1.0	0.0	230.0	1	1.06	0.94				
	63	2	70.0	30.0	0.0	0.0	1	1.0	0.0	115.0	1	1.06	0.94				
	64	1	0.0	0.0	0.0	0.0	1	1.0	0.0	230.0	1	1.06	0.94				
	69	1	0.0	0.0	0.0	0.0	1	1.0	0.0	115.0	1	1.06	0.94				
	70	1	56.00000000000001	20.0	0.0	0.0	1	1.0	0.0	115.0	1	1.06	0.94				
	71	1	115.99999999999999	38.0	0.0	0.0	1	1.0	0.0	115.0	1	1.06	0.94				
	72	1	56.99999999999999	19.0	0.0	0.0	1	1.0	0.0	115.0	1	1.06	0.94				
	73	1	224.00000000000003	71.0	0.0	0.0	1	1.0	0.0	115.0	1	1.06	0.94				
	74	1	0.0	0.0	0.0	0.0	1	1.0	0.0	230.0	1	1.06	0.94				
	76	2	208.0	107.0	0.0	0.0	1	1.0	0.0	115.0	1	1.06	0.94				
	77	1	74.0	28.000000000000004	0.0	0.0	1	1.0	0.0	115.0	1	1.06	0.94				
	78	1	0.0	0.0	0.0	0.0	1	1.0	0.0	115.0	1	1.06	0.94				
	79	1	48.0	14.000000000000002	0.0	0.0	1	1.0	0.0	115.0	1	1.06	0.94				
	80	1	28.000000000000004	7.000000000000001	0.0	0.0	1	1.0	0.0	115.0	1	1.06	0.94				
	81	1	0.0	0.0	0.0	0.0	1	1.0	0.0	345.0	1	1.06	0.94				
	84	2	37.0	13.0	0.0	0.0	1	1.0	0.0	115.0	1	1.06	0.94				
	85	1	0.0	0.0	0.0	0.0	1	1.0	0.0	230.0	1	1.06	0.94				
	86	1	0.0	0.0	0.0	0.0	1	1.0	0.0	230.0	1	1.06	0.94				
	87	1	0.0	0.0	0.0	0.0	1	1.0	0.0	230.0	1	1.06	0.94				
	88	1	0.0	0.0	0.0	0.0	1	1.0	0.0	230.0	1	1.06	0.94				
	89	1	44.2	0.0	0.0	0.0	1	1.0	0.0	115.0	1	1.06	0.94				
	90	1	66.0	0.0	0.0	0.0	1	1.0	0.0	115.0	1	1.06	0.94				
	91	2	17.4	0.0	0.0	0.0	1	1.0	0.0	115.0	1	1.06	0.94				
	92	2	15.8	0.0	0.0	0.0	1	1.0	0.0	115.0	1	1.06	0.94				
	94	1	60.3	0.0	0.0	0.0	1	1.0	0.0	115.0	1	1.06	0.94				
	97	1	39.9	0.0	0.0	0.0	1	1.0	0.0	115.0	1	1.06	0.94				
	98	2	66.7	0.0	0.0	0.0	1	1.0	0.0	115.0	1	1.06	0.94				
	99	1	83.5	0.0	0.0	0.0	1	1.0	0.0	115.0	1	1.06	0.94				
	100	1	0.0	0.0	0.0	0.0	1	1.0	0.0	115.0	1	1.06	0.94				
	102	1	77.8	0.0	0.0	0.0	1	1.0	0.0	115.0	1	1.06	0.94				
	103	1	32.0	0.0	0.0	0.0	1	1.0	0.0	115.0	1	1.06	0.94				
	104	1	8.6	0.0	0.0	0.0	1	1.0	0.0	115.0	1	1.06	0.94				
	105	1	49.6	0.0	0.0	0.0	1	1.0	0.0	115.0	1	1.06	0.94				
	107	1	4.6	0.0	0.0	0.0	1	1.0	0.0	115.0	1	1.06	0.94				
	108	2	112.1	0.0	0.0	0.0	1	1.0	0.0	115.0	1	1.06	0.94				
	109	1	30.7	0.0	0.0	0.0	1	1.0	0.0	115.0	1	1.06	0.94				
	110	1	63.0	0.0	0.0	0.0	1	1.0	0.0	115.0	1	1.06	0.94				
	112	1	19.6	0.0	0.0	0.0	1	1.0	0.0	115.0	1	1.06	0.94				
	113	1	26.200000000000003	0.0	0.0	0.0	1	1.0	0.0	115.0	1	1.06	0.94				
	114	1	18.2	0.0	0.0	0.0	1	1.0	0.0	115.0	1	1.06	0.94				
	115	1	0.0	0.0	0.0	0.0	1	1.0	0.0	115.0	2	1.06	0.94				
	116	1	0.0	0.0	0.0	0.0	1	1.0	0.0	115.0	2	1.06	0.94				
	117	1	0.0	0.0	0.0	325.0	1	1.0	0.0	115.0	2	1.06	0.94				
	118	1	14.099999999999998	650.0	0.0	0.0	1	1.0	0.0	115.0	2	1.06	0.94				
	119	2	0.0	0.0	0.0	0.0	1	1.0	0.0	115.0	2	1.06	0.94				
	120	1	777.0	215.0	0.0	55.00000000000001	1	1.0	0.0	115.0	2	1.06	0.94				
	121	1	535.0	55.00000000000001	0.0	0.0	1	1.0	0.0	115.0	2	1.06	0.94				
	122	1	229.1	11.8	0.0	0.0	1	1.0	0.0	115.0	2	1.06	0.94				
	123	1	78.0	1.4	0.0	0.0	1	1.0	0.0	115.0	2	1.06	0.94				
	124	2	276.4	59.3	0.0	0.0	1	1.0	0.0	115.0	2	1.06	0.94				
	125	2	514.8	82.7	0.0	0.0	1	1.0	0.0	115.0	2	1.06	0.94				
	126	1	57.9	5.1	0.0	0.0	1	1.0	0.0	115.0	2	1.06	0.94				
	127	1	380.8	37.0	0.0	0.0	1	1.0	0.0	230.0	2	1.06	0.94				
	128	1	0.0	0.0	0.0	0.0	1	1.0	0.0	230.0	2	1.06	0.94				
	129	1	0.0	0.0	0.0	0.0	1	1.0	0.0	230.0	2	1.06	0.94				
	130	1	0.0	0.0	0.0	0.0	1	1.0	0.0	230.0	2	1.06	0.94				
	131	1	0.0	0.0	0.0	0.0	1	1.0	0.0	230.0	2	1.06	0.94				
	132	1	0.0	0.0	0.0	0.0	1	1.0	0.0	230.0	2	1.06	0.94				
	133	1	0.0	0.0	0.0	0.0	1	1.0	0.0	230.0	2	1.06	0.94				
	134	1	0.0	0.0	0.0	0.0	1	1.0	0.0	230.0	2	1.06	0.94				
	135	1	169.2	41.6	0.0	0.0	1	1.0	0.0	230.0	2	1.06	0.94				
	136	1	55.2	18.2	0.0	0.0	1	1.0	0.0	230.0	2	1.06	0.94				
	137	1	273.6	99.8	0.0	0.0	1	1.0	0.0	230.0	2	1.06	0.94				
	138	2	1019.2	135.2	0.0	0.0	1	1.0	0.0	230.0	2	1.06	0.94				
	139	1	595.0	83.3	0.0	0.0	1	1.0	0.0	115.0	2	1.06	0.94				
	140	1	387.7	114.7	0.0	0.0	1	1.0	0.0	230.0	2	1.06	0.94				
	141	2	145.0	57.99999999999999	0.0	0.0	1	1.0	0.0	230.0	2	1.06	0.94				
	142	1	56.49999999999999	24.5	0.0	0.0	1	1.0	0.0	230.0	2	1.06	0.94				
	143	2	89.5	35.5	0.0	0.0	1	1.0	0.0	230.0	2	1.06	0.94				
	144	1	0.0	0.0	0.0	0.0	1	1.0	0.0	230.0	2	1.06	0.94				
	145	1	24.0	14.000000000000002	0.0	0.0	1	1.0	0.0	230.0	2	1.06	0.94				
	146	2	0.0	0.0	0.0	0.0	1	1.0	0.0	230.0	2	1.06	0.94				
	147	2	0.0	0.0	0.0	0.0	1	1.0	0.0	230.0	2	1.06	0.94				
	148	1	63.0	25.0	0.0	0.0	1	1.0	0.0	230.0	2	1.06	0.94				
	149	2	0.0	0.0	0.0	0.0	1	1.0	0.0	230.0	2	1.06	0.94				
	150	1	0.0	0.0	0.0	0.0	1	1.0	0.0	230.0	2	1.06	0.94				
	151	1	0.0	0.0	0.0	0.0	1	1.0	0.0	230.0	2	1.06	0.94				
	152	2	17.0	9.0	0.0	0.0	1	1.0	0.0	230.0	2	1.06	0.94				
	153	2	0.0	0.0	0.0	0.0	1	1.0	0.0	230.0	2	1.06	0.94				
	154	1	70.0	5.0	0.0	34.5	1	1.0	0.0	115.0	2	1.06	0.94				
	155	1	200.0	50.0	0.0	0.0	1	1.0	0.0	230.0	2	1.06	0.94				
	156	2	75.0	50.0	0.0	0.0	1	1.0	0.0	115.0	2	1.06	0.94				
	157	1	123.50000000000001	-24.3	0.0	0.0	1	1.0	0.0	230.0	2	1.06	0.94				
	158	1	0.0	0.0	0.0	0.0	1	1.0	0.0	230.0	2	1.06	0.94				
	159	1	33.0	16.5	0.0	0.0	1	1.0	0.0	230.0	2	1.06	0.94				
	160	1	0.0	0.0	0.0	0.0	1	1.0	0.0	230.0	2	1.06	0.94				
	161	1	35.0	15.0	0.0	0.0	1	1.0	0.0	230.0	2	1.06	0.94				
	162	1	85.0	24.0	0.0	0.0	1	1.0	0.0	230.0	2	1.06	0.94				
	163	1	0.0	0.4	0.0	0.0	1	1.0	0.0	230.0	2	1.06	0.94				
	164	1	0.0	0.0	0.0	-212.0	1	1.0	0.0	230.0	2	1.06	0.94				
	165	1	0.0	0.0	0.0	0.0	1	1.0	0.0	230.0	2	1.06	0.94				
	166	1	0.0	0.0	0.0	-103.0	1	1.0	0.0	230.0	2	1.06	0.94				
	167	1	299.9	95.7	0.0	0.0	1	1.0	0.0	230.0	2	1.06	0.94				
	168	1	0.0	0.0	0.0	0.0	1	1.0	0.0	230.0	2	1.06	0.94				
	169	1	0.0	0.0	0.0	0.0	1	1.0	0.0	230.0	2	1.06	0.94				
	170	2	481.80000000000007	204.99999999999997	0.0	0.0	1	1.0	0.0	115.0	2	1.06	0.94				
	171	2	763.6	291.1	0.0	0.0	1	1.0	0.0	115.0	2	1.06	0.94				
	172	1	26.5	0.0	0.0	0.0	1	1.0	0.0	115.0	2	1.06	0.94				
	173	1	163.5	43.0	0.0	53.0	1	1.0	0.0	115.0	2	1.06	0.94				
	174	1	0.0	0.0	0.0	0.0	1	1.0	0.0	115.0	2	1.06	0.94				
	175	1	176.0	83.0	0.0	0.0	1	1.0	0.0	115.0	2	1.06	0.94				
	176	2	5.0	4.0	0.0	0.0	1	1.0	0.0	115.0	2	1.06	0.94				
	177	2	28.000000000000004	12.0	0.0	0.0	1	1.0	0.0	115.0	2	1.06	0.94				
	178	1	427.4	173.6	0.0	0.0	1	1.0	0.0	115.0	2	1.06	0.94				
	179	1	74.0	28.999999999999996	0.0	45.0	1	1.0	0.0	115.0	2	1.06	0.94				
	180	1	69.5	49.3	0.0	0.0	1	1.0	0.0	115.0	2	1.06	0.94				
	181	1	73.4	0.0	0.0	0.0	1	1.0	0.0	230.0	2	1.06	0.94				
	182	1	240.7	89.0	0.0	0.0	1	1.0	0.0	230.0	2	1.06	0.94				
	183	1	40.0	4.0	0.0	0.0	1	1.0	0.0	115.0	2	1.06	0.94				
	184	1	136.8	16.6	0.0	0.0	1	1.0	0.0	230.0	2	1.06	0.94				
	185	2	0.0	0.0	0.0	0.0	1	1.0	0.0	230.0	2	1.06	0.94				
	186	2	59.8	24.3	0.0	0.0	1	1.0	0.0	230.0	2	1.06	0.94				
	187	2	59.8	24.3	0.0	0.0	1	1.0	0.0	230.0	2	1.06	0.94				
	188	1	182.6	43.6	0.0	0.0	1	1.0	0.0	230.0	2	1.06	0.94				
	189	1	7.000000000000001	2.0	0.0	0.0	1	1.0	0.0	66.0	3	1.06	0.94				
	190	2	0.0	0.0	0.0	-150.0	1	1.0	0.0	345.0	3	1.06	0.94				
	191	2	488.99999999999994	53.0	0.0	0.0	1	1.0	0.0	230.0	3	1.06	0.94				
	192	1	800.0	72.0	0.0	0.0	1	1.0	0.0	230.0	3	1.06	0.94				
	193	1	0.0	0.0	0.0	0.0	1	1.0	0.0	66.0	3	1.06	0.94				
	194	1	0.0	0.0	0.0	0.0	1	1.0	0.0	345.0	3	1.06	0.94				
	195	1	0.0	0.0	0.0	0.0	1	1.0	0.0	345.0	3	1.06	0.94				
	196	1	10.0	3.0	0.0	0.0	1	1.0	0.0	115.0	3	1.06	0.94				
	197	1	43.0	14.000000000000002	0.0	0.0	1	1.0	0.0	115.0	3	1.06	0.94				
	198	2	64.0	21.0	0.0	0.0	1	1.0	0.0	115.0	3	1.06	0.94				
	199	1	35.0	12.0	0.0	0.0	1	1.0	0.0	115.0	3	1.06	0.94				
	200	1	27.0	12.0	0.0	0.0	1	1.0	0.0	115.0	3	1.06	0.94				
	201	1	41.0	14.000000000000002	0.0	0.0	1	1.0	0.0	66.0	1	1.06	0.94				
	202	1	38.0	13.0	0.0	0.0	1	1.0	0.0	66.0	3	1.06	0.94				
	203	1	42.0	14.000000000000002	0.0	0.0	1	1.0	0.0	115.0	3	1.06	0.94				
	204	1	72.0	24.0	0.0	0.0	1	1.0	0.0	66.0	3	1.06	0.94				
	205	1	0.0	-5.0	0.0	0.0	1	1.0	0.0	66.0	3	1.06	0.94				
	206	1	12.0	2.0	0.0	0.0	1	1.0	0.0	66.0	3	1.06	0.94				
	207	1	-21.0	-14.2	0.0	0.0	1	1.0	0.0	66.0	1	1.06	0.94				
	208	1	7.000000000000001	2.0	0.0	0.0	1	1.0	0.0	66.0	3	1.06	0.94				
	209	1	38.0	13.0	0.0	0.0	1	1.0	0.0	66.0	3	1.06	0.94				
	210	1	0.0	0.0	0.0	0.0	1	1.0	0.0	115.0	3	1.06	0.94				
	211	1	96.0	7.000000000000001	0.0	0.0	1	1.0	0.0	115.0	3	1.06	0.94				
	212	1	0.0	0.0	0.0	0.0	1	1.0	0.0	138.0	3	1.06	0.94				
	213	2	0.0	0.0	0.0	0.0	1	1.0	0.0	16.5	3	1.06	0.94				
	214	1	22.0	16.0	0.0	0.0	1	1.0	0.0	138.0	3	1.06	0.94				
	215	1	47.0	26.0	0.0	0.0	1	1.0	0.0	138.0	3	1.06	0.94				
	216	1	176.0	105.0	0.0	0.0	1	1.0	0.0	138.0	3	1.06	0.94				
	217	1	100.0	75.0	0.0	0.0	1	1.0	0.0	138.0	3	1.06	0.94				
	218	1	131.0	96.0	0.0	0.0	1	1.0	0.0	138.0	3	1.06	0.94				
	219	1	0.0	0.0	0.0	0.0	1	1.0	0.0	345.0	3	1.06	0.94				
	220	2	285.0	100.0	0.0	0.0	1	1.0	0.0	138.0	3	1.06	0.94				
	221	2	171.0	70.0	0.0	0.0	1	1.0	0.0	138.0	3	1.06	0.94				
...
];

%% generator data
%    bus    Pg    Qg    Qmax    Qmin    Vg    mBase    status    Pmax    Pmin    Pc1    Pc2    Qc1min    Qc1max    Qc2min    Qc2max    ramp_agc    ramp_10    ramp_30    ramp_q    apf
mpc.gen = [
	8	0.0	0.0	10.0	-10.0	1.0	100.0	1	0.0	0.0															
	10	0.0	0.0	20.0	-20.0	1.0	100.0	1	0.0	0.0															
	20	0.0	0.0	20.0	-20.0	1.0	100.0	1	0.0	0.0															
	63	0.0	0.0	25.0	-25.0	1.0	100.0	1	0.0	0.0															
	76	0.0	23.5	35.0	12.0	1.0	100.0	1	0.0	0.0															
	84	724.0	0.0	240.0	-240.0	1.0	100.0	1	1448.0	0.0															
	91	92.5	41.0	93.0	-11.0	1.0	100.0	1	185.0	0.0															
	92	180.0	0.0	153.0	-153.0	1.0	100.0	1	360.0	0.0															
	98	46.5	8.5	47.0	-30.0	1.0	100.0	1	93.0	0.0															
	108	98.5	26.5	77.0	-24.0	1.0	100.0	1	197.0	0.0															
	119	1020.5	260.5	1021.0000000000001	-500.0	1.0	100.0	1	2041.0	0.0															
	124	160.5	30.0	120.0	-60.0	1.0	100.0	1	321.0	0.0															
	125	0.0	87.5	200.0	-25.0	1.0	100.0	1	0.0	0.0															
	138	0.0	112.5	350.0	-125.0	1.0	100.0	1	0.0	0.0															
	141	148.5	12.5	75.0	-50.0	1.0	100.0	1	297.0	0.0															
	143	400.0	100.0	300.0	-100.0	1.0	100.0	1	800.0	0.0															
	146	45.5	10.0	35.0	-15.0	1.0	100.0	1	91.0	0.0															
	147	160.0	25.0	100.0	-50.0	1.0	100.0	1	320.0	0.0															
	149	138.5	12.5	50.0	-25.0	1.0	100.0	1	277.0	0.0															
	152	303.0	62.5	175.0	-50.0	1.0	100.0	1	606.0	0.0															
	153	121.0	20.0	90.0	-50.0	1.0	100.0	1	242.0	0.0															
	156	0.0	2.5	15.0	-10.0	1.0	100.0	1	0.0	0.0															
	170	165.0	25.0	90.0	-40.0	1.0	100.0	1	330.0	0.0															
	171	0.0	50.0	150.0	-50.0	1.0	100.0	1	0.0	0.0															
	176	139.0	22.5	90.0	-45.0	1.0	100.0	1	278.0	0.0															
	177	62.5	10.0	35.0	-15.0	1.0	100.0	1	125.0	0.0															
	185	125.0	15.0	80.0	-50.0	1.0	100.0	1	250.0	0.0															
	186	1232.5	150.0	400.0	-100.0	1.0	100.0	1	2465.0	0.0															
	187	811.9999999999999	150.0	400.0	-100.0	1.0	100.0	1	1623.9999999999998	0.0															
	190	257.5	0.0	258.0	-258.0	1.0	100.0	1	515.0	0.0															
	191	1070.0	0.0	1000.0	-1000.0	1.0	100.0	1	2140.0	0.0															
	198	215.0	0.0	215.0	-215.0	1.0	100.0	1	430.0	0.0															
	213	144.0	0.0	144.0	-144.0	1.0	100.0	1	288.0	0.0															
	220	229.99999999999997	0.0	60.0	-60.0	1.0	100.0	1	459.99999999999994	0.0															
	221	277.0	0.0	277.0	-277.0	1.0	100.0	1	554.0	0.0															
	222	261.5	0.0	262.0	-262.0	1.0	100.0	1	523.0	0.0															
	227	218.00000000000003	0.0	218.00000000000003	-218.00000000000003	1.0	100.0	1	436.00000000000006	0.0															
	230	229.0	0.0	229.0	-229.0	1.0	100.0	1	458.0	0.0															
	233	170.5	0.0	171.0	-171.0	1.0	100.0	1	341.0	0.0															
	236	440.5	0.0	300.0	-300.0	1.0	100.0	1	881.0	0.0															
	238	133.5	0.0	134.0	-134.0	1.0	100.0	1	267.0	0.0															
	239	310.5	0.0	311.0	-311.0	1.0	100.0	1	621.0	0.0															
	241	563.5	0.0	564.0	-564.0	1.0	100.0	1	1127.0	0.0															
	242	106.0	70.0	100.0	40.0	1.0	100.0	1	212.0	0.0															
	243	171.0	60.0	80.0	40.0	1.0	100.0	1	342.0	0.0															
	7001	284.0	0.0	210.0	-210.0	1.0	100.0	1	568.0	0.0															
	7002	335.0	0.0	280.0	-280.0	1.0	100.0	1	670.0	0.0															
	7003	700.5	0.0	420.0	-420.0	1.0	100.0	1	1401.0	0.0															
	7011	334.0	0.0	100.0	-100.0	1.0	100.0	1	668.0	0.0															
	7012	313.0	0.0	224.00000000000003	-224.00000000000003	1.0	100.0	1	626.0	0.0															
	7017	245.00000000000003	122.50000000000001	245.00000000000003	0.0	1.0	100.0	1	490.00000000000006	0.0															
	7023	110.00000000000001	55.00000000000001	110.00000000000001	0.0	1.0	100.0	1	220.00000000000003	0.0															
	7024	271.5	0.0	224.00000000000003	-224.00000000000003	1.0	100.0	1	543.0	0.0															
	7039	290.0	0.0	200.0	-200.0	1.0	100.0	1	580.0	0.0															
	7044	66.0	21.0	42.0	0.0	1.0	100.0	1	132.0	0.0															
	7049	359.0	5.0	10.0	0.0	1.0	100.0	1	718.0	0.0															
	7055	79.0	12.5	25.0	0.0	1.0	100.0	1	158.0	0.0															
	7057	167.0	0.0	90.0	-90.0	1.0	100.0	1	334.0	0.0															
	7061	878.5	0.0	150.0	-150.0	1.0	100.0	1	1757.0	0.0															
	7062	284.0	75.0	150.0	0.0	1.0	100.0	1	568.0	0.0															
	7071	101.49999999999999	43.5	87.0	0.0	1.0	100.0	1	202.99999999999997	0.0															
	7130	863.0000000000001	250.0	600.0	-100.0	1.0	100.0	1	1726.0000000000002	0.0															
	7139	1012.5	100.0	325.0	-125.0	1.0	100.0	1	2025.0	0.0															
	7166	312.0	50.0	300.0	-200.0	1.0	100.0	1	624.0	0.0															
	9002	0.0	0.0	2.0	-2.0	1.0	100.0	1	0.0	0.0															
	9051	0.0	0.0	17.35	-17.35	1.0	100.0	1	0.0	0.0															
	9053	0.0	0.015	12.83	-12.8	1.0	100.0	1	0.0	0.0															
	9054	42.0	0.0	38.0	-38.0	1.0	100.0	1	84.0	0.0															
	9055	18.5	0.0	6.0	-6.0	1.0	100.0	1	37.0	0.0															
];

%% branch data
%    f_bus    t_bus    r    x    b    rateA    rateB    rateC    ratio    angle    status    angmin    angmax
mpc.branch = [
	37	9001	6.0e-5	0.00046	0.0	9900.0	63229.99999999999	63229.99999999999	1.0082	0.0	1	-29.999999999999996	29.999999999999996								
	9001	9005	0.0008	0.00348	0.0	8215.0	8215.0	8215.0	0	0	1	-29.999999999999996	29.999999999999996								
	9001	9006	0.02439	0.43682	0.0	68.0	68.0	68.0	0.9668	0.0	1	-29.999999999999996	29.999999999999996								
	9001	9012	0.03624	0.64898	0.0	46.0	46.0	46.0	0.9796	0.0	1	-29.999999999999996	29.999999999999996								
	9005	9051	0.01578	0.37486	0.0	79.0	79.0	79.0	1.0435	0.0	1	-29.999999999999996	29.999999999999996								
	9005	9052	0.01578	0.37486	0.0	79.0	79.0	79.0	0.9391	0.0	1	-29.999999999999996	29.999999999999996								
	9005	9053	0.01602	0.38046	0.0	78.0	78.0	78.0	1.0435	0.0	1	-29.999999999999996	29.999999999999996								
	9005	9054	0.0	0.152	0.0	193.0	193.0	193.0	1.0435	0.0	1	-29.999999999999996	29.999999999999996								
	9005	9055	0.0	0.8	0.0	37.0	37.0	37.0	1.0435	0.0	1	-29.999999999999996	29.999999999999996								
	9006	9007	0.05558	0.24666	0.0	117.0	117.0	117.0	0	0	1	-29.999999999999996	29.999999999999996								
	9006	9003	0.11118	0.49332	0.0	59.0	59.0	59.0	0	0	1	-29.999999999999996	29.999999999999996								
	9006	9003	0.11118	0.49332	0.0	59.0	59.0	59.0	0	0	1	-29.999999999999996	29.999999999999996								
	9012	9002	0.07622	0.43286	0.0	67.0	67.0	67.0	0	0	1	-29.999999999999996	29.999999999999996								
	9012	9002	0.07622	0.43286	0.0	67.0	67.0	67.0	0	0	1	-29.999999999999996	29.999999999999996								
	9002	9021	0.0537	0.07026	0.0	332.0	332.0	332.0	0	0	1	-29.999999999999996	29.999999999999996								
	9021	9023	1.1068	0.95278	0.0	21.0	21.0	21.0	0	0	1	-29.999999999999996	29.999999999999996								
	9021	9022	0.44364	2.8152	0.0	11.0	11.0	11.0	1.0	0.0	1	-29.999999999999996	29.999999999999996								
	9002	9024	0.50748	3.2202	0.0	9.0	9.0	9.0	1.0	0.0	1	-29.999999999999996	29.999999999999996								
	9023	9025	0.66688	3.944	0.0	8.0	8.0	8.0	1.0	0.0	1	-29.999999999999996	29.999999999999996								
	9023	9026	0.6113	3.6152	0.0	8.0	8.0	8.0	1.0	0.0	1	-29.999999999999996	29.999999999999996								
	9007	9071	0.4412	2.9668	0.0	10.0	10.0	10.0	1.0	0.0	1	-29.999999999999996	29.999999999999996								
	9007	9072	0.30792	2.057	0.0	15.0	15.0	15.0	1.0	0.0	1	-29.999999999999996	29.999999999999996								
	9007	9003	0.0558	0.24666	0.0	115.99999999999999	115.99999999999999	115.99999999999999	0	0	1	-29.999999999999996	29.999999999999996								
	9003	9031	0.73633	4.6724	0.0	7.000000000000001	7.000000000000001	7.000000000000001	1.0	0.0	1	-29.999999999999996	29.999999999999996								
	9003	9032	0.76978	4.8846	0.0	6.0	6.0	6.0	1.0	0.0	1	-29.999999999999996	29.999999999999996								
	9003	9033	0.75732	4.8056	0.0	7.000000000000001	7.000000000000001	7.000000000000001	1.0	0.0	1	-29.999999999999996	29.999999999999996								
	9003	9044	0.07378	0.06352	0.0	302.0	302.0	302.0	0	0	1	-29.999999999999996	29.999999999999996								
	9044	9004	0.03832	0.02894	0.0	611.0	611.0	611.0	0	0	1	-29.999999999999996	29.999999999999996								
	9004	9041	0.36614	2.456	0.0	12.0	12.0	12.0	1.0	0.0	1	-29.999999999999996	29.999999999999996								
	9004	9042	1.0593	5.4536	0.0	6.0	6.0	6.0	1.0	0.0	1	-29.999999999999996	29.999999999999996								
	9004	9043	0.1567	1.6994	0.0	18.0	18.0	18.0	1.0	0.0	1	-29.999999999999996	29.999999999999996								
	9003	9034	0.13006	1.3912	0.0	21.0	21.0	21.0	1.0	0.0	1	-29.999999999999996	29.999999999999996								
	9003	9035	0.54484	3.4572	0.0	9.0	9.0	9.0	1.0	0.0	1	-29.999999999999996	29.999999999999996								
	9003	9036	0.15426	1.6729	0.0	18.0	18.0	18.0	1.0	0.0	1	-29.999999999999996	29.999999999999996								
	9003	9037	0.3849	2.5712	0.0	12.0	12.0	12.0	1.0	0.0	1	-29.999999999999996	29.999999999999996								
	9003	9038	0.4412	2.9668	0.0	10.0	10.0	10.0	1.0	0.0	1	-29.999999999999996	29.999999999999996								
	9012	9121	0.23552	0.99036	0.0	28.999999999999996	28.999999999999996	28.999999999999996	0	0	1	-29.999999999999996	29.999999999999996								
	9053	9533	0.0	0.75	0.0	40.0	40.0	40.0	0.9583	0.0	1	-29.999999999999996	29.999999999999996								
	1	5	0.001	0.006	0.0	4823.0	4823.0	4823.0	0	0	1	-29.999999999999996	29.999999999999996								
	2	6	0.001	0.009	0.0	3240.0	3240.0	3240.0	0	0	1	-29.999999999999996	29.999999999999996								
	2	8	0.006	0.027	0.054	1061.0	1061.0	1061.0	0	0	1	-29.999999999999996	29.999999999999996								
	3	7	0.0	0.003	0.0	9778.0	9778.0	9778.0	0	0	1	-29.999999999999996	29.999999999999996								
	3	19	0.008	0.069	0.139	423.00000000000006	423.00000000000006	423.00000000000006	0	0	1	-29.999999999999996	29.999999999999996								
	3	150	0.001	0.007	0.0	4149.0	4149.0	4149.0	0	0	1	-29.999999999999996	29.999999999999996								
	4	16	0.002	0.019	1.127	1536.0	1536.0	1536.0	0	0	1	-29.999999999999996	29.999999999999996								
	5	9	0.006	0.029	0.018	991.0	991.0	991.0	0	0	1	-29.999999999999996	29.999999999999996								
	7	12	0.001	0.009	0.07	3240.0	3240.0	3240.0	0	0	1	-29.999999999999996	29.999999999999996								
	7	131	0.001	0.007	0.014	4149.0	4149.0	4149.0	0	0	1	-29.999999999999996	29.999999999999996								
	8	11	0.013	0.0595	0.033	482.0	482.0	482.0	0	0	1	-29.999999999999996	29.999999999999996								
	8	14	0.013	0.042	0.081	668.0	668.0	668.0	0	0	1	-29.999999999999996	29.999999999999996								
	9	11	0.006	0.027	0.013	1061.0	1061.0	1061.0	0	0	1	-29.999999999999996	29.999999999999996								
	11	13	0.008	0.034	0.018	840.0	840.0	840.0	0	0	1	-29.999999999999996	29.999999999999996								
	12	21	0.002	0.015	0.118	1939.0	1939.0	1939.0	0	0	1	-29.999999999999996	29.999999999999996								
	13	20	0.006	0.034	0.016	850.0	850.0	850.0	0	0	1	-29.999999999999996	29.999999999999996								
	14	15	0.014	0.042	0.097	663.0	663.0	663.0	0	0	1	-29.999999999999996	29.999999999999996								
	15	37	0.065	0.248	0.121	114.99999999999999	114.99999999999999	114.99999999999999	0	0	1	-29.999999999999996	29.999999999999996								
	15	89	0.099	0.248	0.035	110.00000000000001	110.00000000000001	110.00000000000001	0	0	1	-29.999999999999996	29.999999999999996								
	15	90	0.096	0.363	0.048	79.0	79.0	79.0	0	0	1	-29.999999999999996	29.999999999999996								
	16	42	0.002	0.022	1.28	1328.0	1328.0	1328.0	0	0	1	-29.999999999999996	29.999999999999996								
	19	21	0.002	0.018	0.036	1620.0	1620.0	1620.0	0	0	1	-29.999999999999996	29.999999999999996								
	19	87	0.013	0.08	0.151	362.0	362.0	362.0	0	0	1	-29.999999999999996	29.999999999999996								
	20	22	0.016	0.033	0.015	800.0	800.0	800.0	0	0	1	-29.999999999999996	29.999999999999996								
	20	27	0.069	0.186	0.098	148.0	148.0	148.0	0	0	1	-29.999999999999996	29.999999999999996								
	21	24	0.004	0.034	0.28	857.0	857.0	857.0	0	0	1	-29.999999999999996	29.999999999999996								
	22	23	0.052	0.111	0.05	240.0	240.0	240.0	0	0	1	-29.999999999999996	29.999999999999996								
	23	25	0.019	0.039	0.018	677.0	677.0	677.0	0	0	1	-29.999999999999996	29.999999999999996								
	24	319	0.007	0.068	0.134	430.0	430.0	430.0	0	0	1	-29.999999999999996	29.999999999999996								
	25	26	0.036	0.071	0.034	369.0	369.0	369.0	0	0	1	-29.999999999999996	29.999999999999996								
	26	27	0.045	0.12	0.065	229.0	229.0	229.0	0	0	1	-29.999999999999996	29.999999999999996								
	26	320	0.043	0.13	0.014	215.0	215.0	215.0	0	0	1	-29.999999999999996	29.999999999999996								
	33	34	0.0	0.063	0.0	466.0	466.0	466.0	1.0	0.0	1	-29.999999999999996	29.999999999999996								
	33	38	0.0025	0.012	0.013	2393.0	2393.0	2393.0	0	0	1	-29.999999999999996	29.999999999999996								
	33	40	0.006	0.029	0.02	991.0	991.0	991.0	0	0	1	-29.999999999999996	29.999999999999996								
	33	41	0.007	0.043	0.026	674.0	674.0	674.0	0	0	1	-29.999999999999996	29.999999999999996								
	34	42	0.001	0.008	0.042	3639.0	3639.0	3639.0	0	0	1	-29.999999999999996	29.999999999999996								
	35	72	0.012	0.06	0.008	480.0	480.0	480.0	0	0	1	-29.999999999999996	29.999999999999996								
	35	76	0.006	0.014	0.002	1926.0000000000002	1926.0000000000002	1926.0000000000002	0	0	1	-29.999999999999996	29.999999999999996								
	35	77	0.01	0.029	0.003	957.0	957.0	957.0	0	0	1	-29.999999999999996	29.999999999999996								
	36	88	0.004	0.027	0.043	1075.0	1075.0	1075.0	0	0	1	-29.999999999999996	29.999999999999996								
	37	38	0.008	0.047	0.008	616.0	616.0	616.0	0	0	1	-29.999999999999996	29.999999999999996								
	37	40	0.022	0.064	0.007	434.0	434.0	434.0	0	0	1	-29.999999999999996	29.999999999999996								
	37	41	0.01	0.036	0.02	786.0	786.0	786.0	0	0	1	-29.999999999999996	29.999999999999996								
	37	49	0.017	0.081	0.048	355.0	355.0	355.0	0	0	1	-29.999999999999996	29.999999999999996								
	37	89	0.102	0.254	0.033	108.0	108.0	108.0	0	0	1	-29.999999999999996	29.999999999999996								
	37	90	0.047	0.127	0.016	217.0	217.0	217.0	0	0	1	-29.999999999999996	29.999999999999996								
	38	41	0.008	0.037	0.02	775.0	775.0	775.0	0	0	1	-29.999999999999996	29.999999999999996								
	38	43	0.032	0.087	0.04	317.0	317.0	317.0	0	0	1	-29.999999999999996	29.999999999999996								
	39	42	0.0006	0.0064	0.404	4564.0	4564.0	4564.0	0	0	1	-29.999999999999996	29.999999999999996								
	40	48	0.026	0.154	0.022	188.0	188.0	188.0	0	0	1	-29.999999999999996	29.999999999999996								
	41	42	0.0	0.029	0.0	1011.9999999999999	1011.9999999999999	1011.9999999999999	1.0	0.0	1	-29.999999999999996	29.999999999999996								
	41	49	0.065	0.191	0.02	146.0	146.0	146.0	0	0	1	-29.999999999999996	29.999999999999996								
	41	51	0.031	0.089	0.036	312.0	312.0	312.0	0	0	1	-29.999999999999996	29.999999999999996								
	42	46	0.002	0.014	0.806	2075.0	2075.0	2075.0	0	0	1	-29.999999999999996	29.999999999999996								
	43	44	0.026	0.072	0.035	384.0	384.0	384.0	0	0	1	-29.999999999999996	29.999999999999996								
	43	48	0.095	0.262	0.032	106.0	106.0	106.0	0	0	1	-29.999999999999996	29.999999999999996								
	43	53	0.013	0.039	0.016	714.0	714.0	714.0	0	0	1	-29.999999999999996	29.999999999999996								
	44	47	0.027	0.084	0.039	333.0	333.0	333.0	0	0	1	-29.999999999999996	29.999999999999996								
	44	54	0.028	0.084	0.037	332.0	332.0	332.0	0	0	1	-29.999999999999996	29.999999999999996								
	45	60	0.007	0.041	0.312	706.0	706.0	706.0	0	0	1	-29.999999999999996	29.999999999999996								
	45	74	0.009	0.054	0.411	536.0	536.0	536.0	0	0	1	-29.999999999999996	29.999999999999996								
	46	81	0.005	0.042	0.69	694.0	694.0	694.0	0	0	1	-29.999999999999996	29.999999999999996								
	47	73	0.052	0.145	0.073	191.0	191.0	191.0	0	0	1	-29.999999999999996	29.999999999999996								
	47	113	0.043	0.118	0.013	234.0	234.0	234.0	0	0	1	-29.999999999999996	29.999999999999996								
	48	107	0.025	0.062	0.007	438.99999999999994	438.99999999999994	438.99999999999994	0	0	1	-29.999999999999996	29.999999999999996								
	49	51	0.031	0.094	0.043	297.0	297.0	297.0	0	0	1	-29.999999999999996	29.999999999999996								
	51	52	0.037	0.109	0.049	254.99999999999997	254.99999999999997	254.99999999999997	0	0	1	-29.999999999999996	29.999999999999996								
	52	55	0.027	0.08	0.036	348.0	348.0	348.0	0	0	1	-29.999999999999996	29.999999999999996								
	53	54	0.025	0.073	0.035	381.0	381.0	381.0	0	0	1	-29.999999999999996	29.999999999999996								
	54	55	0.035	0.103	0.047	270.0	270.0	270.0	0	0	1	-29.999999999999996	29.999999999999996								
	55	57	0.065	0.169	0.082	162.0	162.0	162.0	0	0	1	-29.999999999999996	29.999999999999996								
	57	58	0.046	0.08	0.036	318.0	318.0	318.0	0	0	1	-29.999999999999996	29.999999999999996								
	57	63	0.159	0.537	0.071	53.0	53.0	53.0	0	0	1	-29.999999999999996	29.999999999999996								
	58	59	0.009	0.026	0.005	1067.0	1067.0	1067.0	0	0	1	-29.999999999999996	29.999999999999996								
	59	61	0.002	0.013	0.015	2231.0	2231.0	2231.0	0	0	1	-29.999999999999996	29.999999999999996								
	60	62	0.009	0.065	0.485	447.0	447.0	447.0	0	0	1	-29.999999999999996	29.999999999999996								
	62	64	0.016	0.105	0.203	277.0	277.0	277.0	0	0	1	-29.999999999999996	29.999999999999996								
	62	144	0.001	0.007	0.013	4149.0	4149.0	4149.0	0	0	1	-29.999999999999996	29.999999999999996								
	63	526	0.0265	0.172	0.026	169.0	169.0	169.0	0	0	1	-29.999999999999996	29.999999999999996								
	69	211	0.051	0.232	0.028	124.0	124.0	124.0	0	0	1	-29.999999999999996	29.999999999999996								
	69	79	0.051	0.157	0.023	178.0	178.0	178.0	0	0	1	-29.999999999999996	29.999999999999996								
	70	71	0.032	0.1	0.062	280.0	280.0	280.0	0	0	1	-29.999999999999996	29.999999999999996								
	70	528	0.02	0.1234	0.028	235.0	235.0	235.0	0	0	1	-29.999999999999996	29.999999999999996								
	71	72	0.036	0.131	0.068	216.0	216.0	216.0	0	0	1	-29.999999999999996	29.999999999999996								
	71	73	0.034	0.099	0.047	281.0	281.0	281.0	0	0	1	-29.999999999999996	29.999999999999996								
	72	77	0.018	0.087	0.011	331.0	331.0	331.0	0	0	1	-29.999999999999996	29.999999999999996								
	72	531	0.0256	0.193	0.0	151.0	151.0	151.0	0	0	1	-29.999999999999996	29.999999999999996								
	73	76	0.021	0.057	0.03	483.0	483.0	483.0	0	0	1	-29.999999999999996	29.999999999999996								
	73	79	0.018	0.052	0.018	534.0	534.0	534.0	0	0	1	-29.999999999999996	29.999999999999996								
	74	88	0.004	0.027	0.05	1075.0	1075.0	1075.0	0	0	1	-29.999999999999996	29.999999999999996								
	74	562	0.0286	0.2013	0.379	145.0	145.0	145.0	0	0	1	-29.999999999999996	29.999999999999996								
	76	77	0.016	0.043	0.004	640.0	640.0	640.0	0	0	1	-29.999999999999996	29.999999999999996								
	77	78	0.001	0.006	0.007	4823.0	4823.0	4823.0	0	0	1	-29.999999999999996	29.999999999999996								
	77	80	0.014	0.07	0.038	411.00000000000006	411.00000000000006	411.00000000000006	0	0	1	-29.999999999999996	29.999999999999996								
	77	552	0.0891	0.2676	0.029	104.0	104.0	104.0	0	0	1	-29.999999999999996	29.999999999999996								
	77	609	0.0782	0.2127	0.022	130.0	130.0	130.0	0	0	1	-29.999999999999996	29.999999999999996								
	78	79	0.006	0.022	0.011	1287.0	1287.0	1287.0	0	0	1	-29.999999999999996	29.999999999999996								
	78	84	0.0	0.036	0.0	815.0	815.0	815.0	0	0	1	-29.999999999999996	29.999999999999996								
	79	211	0.099	0.375	0.051	76.0	76.0	76.0	0	0	1	-29.999999999999996	29.999999999999996								
	80	211	0.022	0.107	0.058	269.0	269.0	269.0	0	0	1	-29.999999999999996	29.999999999999996								
	81	194	0.0035	0.033	0.53	884.0	884.0	884.0	0	0	1	-29.999999999999996	29.999999999999996								
	81	195	0.0035	0.033	0.53	884.0	884.0	884.0	0	0	1	-29.999999999999996	29.999999999999996								
	85	86	0.008	0.064	0.128	455.0	455.0	455.0	0	0	1	-29.999999999999996	29.999999999999996								
	86	87	0.012	0.093	0.183	313.0	313.0	313.0	0	0	1	-29.999999999999996	29.999999999999996								
	86	323	0.006	0.048	0.092	607.0	607.0	607.0	0	0	1	-29.999999999999996	29.999999999999996								
	89	91	0.047	0.119	0.014	229.99999999999997	229.99999999999997	229.99999999999997	0	0	1	-29.999999999999996	29.999999999999996								
	90	92	0.032	0.174	0.024	166.0	166.0	166.0	0	0	1	-29.999999999999996	29.999999999999996								
	91	94	0.1	0.253	0.031	108.0	108.0	108.0	0	0	1	-29.999999999999996	29.999999999999996								
	91	97	0.022	0.077	0.039	367.0	367.0	367.0	0	0	1	-29.999999999999996	29.999999999999996								
	92	103	0.019	0.144	0.017	202.0	202.0	202.0	0	0	1	-29.999999999999996	29.999999999999996								
	92	105	0.017	0.092	0.012	314.0	314.0	314.0	0	0	1	-29.999999999999996	29.999999999999996								
	94	97	0.278	0.427	0.043	57.99999999999999	57.99999999999999	57.99999999999999	0	0	1	-29.999999999999996	29.999999999999996								
	97	100	0.022	0.053	0.007	512.0	512.0	512.0	0	0	1	-29.999999999999996	29.999999999999996								
	97	102	0.038	0.092	0.012	295.0	295.0	295.0	0	0	1	-29.999999999999996	29.999999999999996								
	97	103	0.048	0.122	0.015	224.00000000000003	224.00000000000003	224.00000000000003	0	0	1	-29.999999999999996	29.999999999999996								
	98	100	0.024	0.064	0.007	430.0	430.0	430.0	0	0	1	-29.999999999999996	29.999999999999996								
	98	102	0.034	0.121	0.015	234.0	234.0	234.0	0	0	1	-29.999999999999996	29.999999999999996								
	99	107	0.053	0.135	0.017	202.99999999999997	202.99999999999997	202.99999999999997	0	0	1	-29.999999999999996	29.999999999999996								
	99	108	0.002	0.004	0.002	6559.0	6559.0	6559.0	0	0	1	-29.999999999999996	29.999999999999996								
	99	109	0.045	0.354	0.044	83.0	83.0	83.0	0	0	1	-29.999999999999996	29.999999999999996								
	99	110	0.05	0.174	0.022	163.0	163.0	163.0	0	0	1	-29.999999999999996	29.999999999999996								
	100	102	0.016	0.038	0.004	712.0	712.0	712.0	0	0	1	-29.999999999999996	29.999999999999996								
	102	104	0.043	0.064	0.027	381.0	381.0	381.0	0	0	1	-29.999999999999996	29.999999999999996								
	103	105	0.019	0.062	0.008	453.0	453.0	453.0	0	0	1	-29.999999999999996	29.999999999999996								
	104	108	0.076	0.13	0.044	195.0	195.0	195.0	0	0	1	-29.999999999999996	29.999999999999996								
	104	322	0.044	0.124	0.015	223.0	223.0	223.0	0	0	1	-29.999999999999996	29.999999999999996								
	105	107	0.012	0.088	0.011	331.0	331.0	331.0	0	0	1	-29.999999999999996	29.999999999999996								
	105	110	0.157	0.4	0.047	69.0	69.0	69.0	0	0	1	-29.999999999999996	29.999999999999996								
	108	324	0.074	0.208	0.026	133.0	133.0	133.0	0	0	1	-29.999999999999996	29.999999999999996								
	109	110	0.07	0.184	0.021	149.0	149.0	149.0	0	0	1	-29.999999999999996	29.999999999999996								
	109	113	0.1	0.274	0.031	101.0	101.0	101.0	0	0	1	-29.999999999999996	29.999999999999996								
	109	114	0.109	0.393	0.036	72.0	72.0	72.0	0	0	1	-29.999999999999996	29.999999999999996								
	110	112	0.142	0.404	0.05	69.0	69.0	69.0	0	0	1	-29.999999999999996	29.999999999999996								
	112	114	0.017	0.042	0.006	648.0	648.0	648.0	0	0	1	-29.999999999999996	29.999999999999996								
	115	122	0.0036	0.0199	0.004	1451.0	1451.0	1451.0	0	0	1	-29.999999999999996	29.999999999999996								
	116	120	0.002	0.1049	0.001	280.0	280.0	280.0	0	0	1	-29.999999999999996	29.999999999999996								
	117	118	0.0001	0.0018	0.017	9900.0	16271.0	16271.0	0	0	1	-29.999999999999996	29.999999999999996								
	118	119	0.0	0.0271	0.0	1083.0	1083.0	1083.0	0	0	1	-29.999999999999996	29.999999999999996								
	118	1201	0.0	0.6163	0.0	48.0	48.0	48.0	0	0	1	-29.999999999999996	29.999999999999996								
	1201	120	0.0	-0.3697	0.0	80.0	80.0	80.0	0	0	1	-29.999999999999996	29.999999999999996								
	118	121	0.0022	0.2915	0.0	101.0	101.0	101.0	0	0	1	-29.999999999999996	29.999999999999996								
	119	120	0.0	0.0339	0.0	866.0	866.0	866.0	0	0	1	-29.999999999999996	29.999999999999996								
	119	121	0.0	0.0582	0.0	504.0	504.0	504.0	0	0	1	-29.999999999999996	29.999999999999996								
	122	123	0.0808	0.2344	0.029	119.0	119.0	119.0	0	0	1	-29.999999999999996	29.999999999999996								
	122	125	0.0965	0.3669	0.054	78.0	78.0	78.0	0	0	1	-29.999999999999996	29.999999999999996								
	123	124	0.036	0.1076	0.117	259.0	259.0	259.0	0	0	1	-29.999999999999996	29.999999999999996								
	123	125	0.0476	0.1414	0.149	197.0	197.0	197.0	0	0	1	-29.999999999999996	29.999999999999996								
	125	126	0.0006	0.0197	0.0	1489.0	1489.0	1489.0	0	0	1	-29.999999999999996	29.999999999999996								
	126	127	0.0059	0.0405	0.25	717.0	717.0	717.0	1.0	0.0	1	-29.999999999999996	29.999999999999996								
	126	129	0.0115	0.1106	0.185	264.0	264.0	264.0	1.0	0.0	1	-29.999999999999996	29.999999999999996								
	126	132	0.0198	0.1688	0.321	173.0	173.0	173.0	1.0	0.0	1	-29.999999999999996	29.999999999999996								
	126	157	0.005	0.05	0.33	584.0	584.0	584.0	1.0	0.0	1	-29.999999999999996	29.999999999999996								
	126	158	0.0077	0.0538	0.335	540.0	540.0	540.0	1.0	0.0	1	-29.999999999999996	29.999999999999996								
	126	169	0.0165	0.1157	0.171	250.99999999999997	250.99999999999997	250.99999999999997	1.0	0.0	1	-29.999999999999996	29.999999999999996								
	127	128	0.0059	0.0577	0.095	505.99999999999994	505.99999999999994	505.99999999999994	0	0	1	-29.999999999999996	29.999999999999996								
	127	134	0.0049	0.0336	0.208	864.0	864.0	864.0	0	0	1	-29.999999999999996	29.999999999999996								
	127	168	0.0059	0.0577	0.095	505.99999999999994	505.99999999999994	505.99999999999994	0	0	1	-29.999999999999996	29.999999999999996								
	128	130	0.0078	0.0773	0.126	378.0	378.0	378.0	0	0	1	-29.999999999999996	29.999999999999996								
	128	133	0.0026	0.0193	0.03	1507.0	1507.0	1507.0	0	0	1	-29.999999999999996	29.999999999999996								
	129	130	0.0076	0.0752	0.122	389.0	389.0	389.0	0	0	1	-29.999999999999996	29.999999999999996								
	129	133	0.0021	0.0186	0.03	1568.0	1568.0	1568.0	0	0	1	-29.999999999999996	29.999999999999996								
...
];

%%-----  OPF Data  -----%%
%% cost data
%    1    startup    shutdown    n    x1    y1    ...    xn    yn
%    2    startup    shutdown    n    c(n-1)    ...    c0
mpc.gencost = [
	2	0.0	0.0	2	0.0	0.0
	2	0.0	0.0	2	0.0	0.0
	2	0.0	0.0	2	0.0	0.0
	2	0.0	0.0	2	0.0	0.0
	2	0.0	0.0	2	0.0	0.0
	2	0.0	0.0	2	22.409835000000005	0.0
	2	0.0	0.0	2	46.100054	0.0
	2	0.0	0.0	2	54.164939	0.0
	2	0.0	0.0	2	27.238416	0.0
	2	0.0	0.0	2	38.430722	0.0
	2	0.0	0.0	2	7.698908	0.0
	2	0.0	0.0	2	26.754128	0.0
	2	0.0	0.0	2	0.0	0.0
	2	0.0	0.0	2	0.0	0.0
	2	0.0	0.0	2	30.597916	0.0
	2	0.0	0.0	2	30.758666000000005	0.0
	2	0.0	0.0	2	19.292281	0.0
	2	0.0	0.0	2	49.861855	0.0
	2	0.0	0.0	2	35.842363	0.0
	2	0.0	0.0	2	34.955965	0.0
	2	0.0	0.0	2	22.762722	0.0
	2	0.0	0.0	2	0.0	0.0
	2	0.0	0.0	2	35.375974	0.0
	2	0.0	0.0	2	0.0	0.0
	2	0.0	0.0	2	33.868524	0.0
	2	0.0	0.0	2	29.031265000000005	0.0
	2	0.0	0.0	2	28.391517	0.0
	2	0.0	0.0	2	1.000203	0.0
	2	0.0	0.0	2	27.278538000000005	0.0
	2	0.0	0.0	2	49.15571	0.0
	2	0.0	0.0	2	24.062655	0.0
	2	0.0	0.0	2	31.016664000000002	0.0
	2	0.0	0.0	2	49.721799000000004	0.0
	2	0.0	0.0	2	21.291665	0.0
	2	0.0	0.0	2	31.437031	0.0
	2	0.0	0.0	2	50.842869	0.0
	2	0.0	0.0	2	28.01046	0.0
	2	0.0	0.0	2	39.828572	0.0
	2	0.0	0.0	2	35.650779	0.0
	2	0.0	0.0	2	32.621266	0.0
	2	0.0	0.0	2	39.657688	0.0
	2	0.0	0.0	2	41.223312	0.0
	2	0.0	0.0	2	39.064721	0.0
	2	0.0	0.0	2	116.939409	0.0
	2	0.0	0.0	2	34.336562	0.0
	2	0.0	0.0	2	38.274878	0.0
	2	0.0	0.0	2	23.466762	0.0
	2	0.0	0.0	2	7.509959	0.0
	2	0.0	0.0	2	26.682965	0.0
	2	0.0	0.0	2	28.434868	0.0
	2	0.0	0.0	2	35.126651	0.0
	2	0.0	0.0	2	51.062397000000004	0.0
	2	0.0	0.0	2	29.992015	0.0
	2	0.0	0.0	2	103.987496	0.0
	2	0.0	0.0	2	38.825689	0.0
	2	0.0	0.0	2	6.843072000000001	0.0
	2	0.0	0.0	2	29.772562000000004	0.0
	2	0.0	0.0	2	62.42710300000001	0.0
	2	0.0	0.0	2	20.811515	0.0
	2	0.0	0.0	2	26.50789	0.0
	2	0.0	0.0	2	31.587517	0.0
	2	0.0	0.0	2	29.759924	0.0
	2	0.0	0.0	2	36.179055	0.0
	2	0.0	0.0	2	36.908367	0.0
	2	0.0	0.0	2	0.0	0.0
	2	0.0	0.0	2	0.0	0.0
	2	0.0	0.0	2	0.0	0.0
	2	0.0	0.0	2	32.961473	0.0
	2	0.0	0.0	2	94.758209	0.0
];

